###############################################################################
data_OPT_STEP_0

_symmetry_space_group_name_H-M 'P 1'
_cell_length_a 2.9818692962636706
_cell_length_b 2.9818692962636706
_cell_length_c 2.9818692962636706
_cell_angle_alpha 59.99999999999999 
_cell_angle_beta 59.99999999999999 
_cell_angle_gamma 59.99999999999999

loop_ 
_atom_site_label 
_atom_site_fract_x 
_atom_site_fract_y 
_atom_site_fract_z 
Mg 0.0 0.0 0.0
O -0.5 -0.5 0.5
