###############################################################################
data_OPT_STEP_0

_symmetry_space_group_name_H-M 'P 1'
_cell_length_a 12.593976550029877
_cell_length_b 12.59397655
_cell_length_c 15.0
_cell_angle_alpha 90.0 
_cell_angle_beta 90.0 
_cell_angle_gamma 119.99999999992151

loop_ 
_atom_site_label 
_atom_site_fract_x 
_atom_site_fract_y 
_atom_site_fract_z 
N 0.0 0.0 0.0
N 0.0 0.19999999999999996 0.0
N 0.0 0.3999999999999999 0.0
N 0.0 -0.3999999999999999 0.0
N 0.0 -0.19999999999999996 0.0
N 0.19999999999935816 -3.208960874800937e-13 0.0
N 0.19999999999935816 0.19999999999967905 0.0
N 0.19999999999935816 0.39999999999967906 0.0
N 0.19999999999935816 -0.40000000000032093 0.0
N 0.19999999999935816 -0.20000000000032092 0.0
N 0.3999999999987163 -6.417921749601874e-13 0.0
N 0.3999999999987163 0.19999999999935816 0.0
N 0.3999999999987163 0.3999999999993581 0.0
N 0.3999999999987163 -0.40000000000064184 0.0
N 0.3999999999987163 -0.20000000000064175 0.0
N -0.3999999999987163 6.417921749601874e-13 0.0
N -0.3999999999987163 0.20000000000064175 0.0
N -0.3999999999987163 0.40000000000064184 0.0
N -0.3999999999987163 -0.3999999999993581 0.0
N -0.3999999999987163 -0.19999999999935816 0.0
N -0.19999999999935816 3.208960874800937e-13 0.0
N -0.19999999999935816 0.20000000000032092 0.0
N -0.19999999999935816 0.40000000000032093 0.0
N -0.19999999999935816 -0.39999999999967906 0.0
N -0.19999999999935816 -0.19999999999967905 0.0
B -0.13333333333290542 -0.06666666666645271 0.0
B -0.13333333333290542 0.13333333333354724 0.0
B -0.13333333333290542 0.3333333333335472 0.0
B -0.13333333333290542 -0.4666666666664526 0.0
B -0.13333333333290542 -0.26666666666645267 0.0
B 0.06666666666645271 -0.06666666666677362 0.0
B 0.06666666666645271 0.13333333333322633 0.0
B 0.06666666666645271 0.33333333333322634 0.0
B 0.06666666666645271 -0.46666666666677364 0.0
B 0.06666666666645271 -0.26666666666677363 0.0
B 0.26666666666581085 -0.06666666666709453 0.0
B 0.26666666666581085 0.13333333333290542 0.0
B 0.26666666666581085 0.3333333333329054 0.0
B 0.26666666666581085 -0.46666666666709455 0.0
B 0.26666666666581085 -0.2666666666670945 0.0
B 0.46666666666516904 -0.06666666666741547 0.0
B 0.46666666666516904 0.13333333333258454 0.0
B 0.46666666666516904 0.3333333333325845 0.0
B 0.46666666666516904 -0.4666666666674154 0.0
B 0.46666666666516904 -0.26666666666741545 0.0
B -0.3333333333322636 -0.06666666666613183 0.0
B -0.3333333333322636 0.13333333333386818 0.0
B -0.3333333333322636 0.33333333333386816 0.0
B -0.3333333333322636 -0.46666666666613177 0.0
B -0.3333333333322636 -0.2666666666661318 0.0
Cu 0.19822271249573398 0.1977670560600125 0.2959865993450667
Cu 0.19822271249573398 0.40045565643572145 0.2959865993450667
Cu 0.3324652007461209 0.2648883001852059 0.43538746300346665
Cu 0.3324652007461209 0.46757690056091494 0.43538746300346665
Cu 0.26666666666581085 0.3333333333329054 0.15726580300826667
Cu 0.40090915491619783 0.19776597708246935 0.2966666666666667
Cu 0.46935310908627476 0.33333225435528285 0.15794587032986668
Cu 0.40090915491619783 0.6031431778337284 0.2966666666666667
Cu 0.46935310908627476 0.5360208547309918 0.15794587032986668
Cu 0.40090915491619783 0.40045457745809887 0.2966666666666667
Cu 0.5351516431665847 0.4675758215832923 0.4360675303250667
Cu 0.6035955973366617 0.40045349848047634 0.29734673398826666
Cu 0.6035955973366617 0.6031420988561853 0.29734673398826666
