###############################################################################
data_OPT_STEP_0

_symmetry_space_group_name_H-M 'P 1'
_cell_length_a 5.963738592527341
_cell_length_b 5.963738592527341
_cell_length_c 5.963738592527341
_cell_angle_alpha 59.99999999999999 
_cell_angle_beta 59.99999999999999 
_cell_angle_gamma 59.99999999999999

loop_ 
_atom_site_label 
_atom_site_fract_x 
_atom_site_fract_y 
_atom_site_fract_z 
Ca 0.11856770215793216 -0.38143229784206784 0.11856770215793219
S 0.0 -0.5 -0.5
Mg -0.5 0.0 0.0
Mg -0.5 0.0 -0.5
Mg -0.5 -0.5 0.0
Mg -0.5 -0.5 -0.5
O -0.25 -0.25 0.25
O -0.25 -0.25 -0.25
O -0.25 0.25 0.25
O -0.25 0.25 -0.25
O 0.25 -0.25 0.25
O 0.25 -0.25 -0.25
O 0.25 0.25 0.25
O 0.25 0.25 -0.25
H 0.0 0.0 0.0
